reduced_networks/ieee34/62pct/dss/Shunts.dss
! Kron-equivalent grounded shunts
new Reactor.sh_2 phases=3 bus1=800.1.2.3 bus2=800.0.0.0 rmatrix=[0.8555674422773978 | 0.1344572069784143 0.8472356165108531 | 0.1363206359033444 0.1322223084888245 0.8508306969008073] xmatrix=[-63028.46864596412 | -20816.98383919096 -64457.44848960553 | -15466.49486796724 -12426.09761626329 -63850.01689811875]
new Reactor.sh_3 phases=3 bus1=808.1.2.3 bus2=808.0.0.0 rmatrix=[0.02795476960031816 | 0.006838906600446002 0.0329929240726291 | 0.00483430075506657 0.005507409074849393 0.02706548557947567] xmatrix=[-30678.91430345549 | -8951.238518110806 -27716.39169294226 | -7378.179029919198 -5343.212854924474 -31359.28368803504]
new Reactor.sh_4 phases=3 bus1=812.1.2.3 bus2=812.0.0.0 rmatrix=[2.824214451022655e-08 | -2.738354304337383e-09 -2.818113573127996e-08 | 1.793947788370641e-08 1.750998078638702e-08 3.983851827801595e-08] xmatrix=[-34256.90080614501 | -11314.38499504352 -35033.56990844153 | -8406.328231866113 -6753.835225740335 -34703.42275865295]
new Reactor.sh_5 phases=3 bus1=814.1.2.3 bus2=814.0.0.0 rmatrix=[-3.572090149614656e-08 | 3.163936515722992e-07 8.867649464511459e-07 | 8.572874595916203e-07 8.393526923388327e-07 3.684182970818448e-06] xmatrix=[-77466.91695504362 | -25585.80905383869 -79223.2393174585 | -19009.66858461904 -15272.79994052971 -78476.66034856328]
new Reactor.sh_6 phases=3 bus1=814r.1.2.3 bus2=814r.0.0.0 rmatrix=[0.9107283164059546 | 0.8196509453166947 0.2174524065326291 | 1.575947883245378 2.330174155657824 -5.139970229254392] xmatrix=[-7444997.749839548 | -2396780.53210324 -7603503.173035925 | -1786936.533440416 -1437484.468569368 -7536225.239470121]
new Reactor.sh_7 phases=3 bus1=816.1.2.3 bus2=816.0.0.0 rmatrix=[0.5666314979487488 | 0.1824183606050827 0.05874526615501807 | 0.1360066678330047 0.04386607378307505 0.03250043854288043] xmatrix=[-41036.02496899569 | -13210.78747124935 -211870.0182835333 | -9849.38931746366 -29372.82740533023 -218351.1037860546]
new Reactor.sh_8 phases=3 bus1=824.1.2.3 bus2=824.0.0.0 rmatrix=[0.1291255837500579 | 0.01090771985786885 0.1010744302426655 | 0.01537153683120522 0.01158246978365376 0.1283784097244943] xmatrix=[-74444.26338590814 | -20513.03644477664 -65075.23401595783 | -17432.18869950986 -12302.789015051 -76146.92230662364]
new Reactor.sh_9 phases=1 bus1=820.1 bus2=820.0 rmatrix=[0.242419686438007] xmatrix=[-32316.99409874062]
new Reactor.sh_10 phases=3 bus1=830.1.2.3 bus2=830.0.0.0 rmatrix=[0.1369212970748301 | 0.2043463167587804 0.7062866074263023 | 0.04584089689830081 0.1269561016904806 0.09826232486098799] xmatrix=[-38848.498267375 | -7415.915285311891 -23526.15071926078 | -8681.878018150423 -4447.725716613295 -40489.91028349565]
new Reactor.sh_11 phases=3 bus1=852r.1.2.3 bus2=852r.0.0.0 rmatrix=[17679.13043633493 | 9328.676127222363 14737.93279882542 | 8879.559660939942 6826.117743107747 19952.69807360502] xmatrix=[-39835.48087259092 | -3998.973624898932 -37470.45617413404 | -1477.864665686971 317.1933125810408 -44512.69637007074]
new Reactor.sh_12 phases=3 bus1=888.1.2.3 bus2=888.0.0.0 rmatrix=[3000.429781602329 | -2719.639640208006 2750.232264719793 | -2163.093553598721 -1835.491286153706 2661.405161039222] xmatrix=[-20744.3693346632 | 3085.403648653435 -20925.03092052821 | 3115.791584268869 3127.299296380953 -21116.8705755378]
new Reactor.sh_13 phases=3 bus1=852.1.2.3 bus2=852.0.0.0 rmatrix=[0.009319257852545752 | 0.02219492304409235 0.07388113278745981 | 0.004388112361921923 0.01357433214655881 0.005064824771628254] xmatrix=[-63677.98705594351 | -20192.73859883671 -64059.09377128579 | -15245.09911132176 -12110.69612277474 -64528.58585714977]
new Reactor.sh_14 phases=3 bus1=890.1.2.3 bus2=890.0.0.0 rmatrix=[-2.167197329567855e-11 | -1.957092041461112e-11 -3.20323667296514e-11 | -2.337985998957555e-11 -3.455704008545044e-11 6.266485517260922e-12] xmatrix=[-218095.7804221805 | -72032.77492272455 -223040.426609716 | -53518.6976363976 -42998.13846060462 -220938.5522763621]
